---- qbsp / ericw-tools 2.0.0-alpha8-26-ged62ec10 ----

--- Options Summary ---
    "nocolor" was set to "1" (from command line)

Input file: C:\Programs\Quake-Level-Design-Starter-Kit\maps\spAtlasPrison\l1_atlas-compile.map
Output file: C:\Programs\Quake-Level-Design-Starter-Kit\maps\spAtlasPrison\l1_atlas.bsp

INFO: using built-in palette.
      231 entities
       39 unique textures
    1,882 texinfos
    1,784 unique planes

INFO: world extents calculated to 3752 units
    1,134 brushes
    6,833 sides
    1,452 side bevels

            9 texture frames added
WARNING: unable to find texture skip
WARNING: unable to find texture pebbledashStrip
Processing hull 0...
      944 SOLID brushes
        1 SKY brushes
       80 MIST | Q2_UNUSED_8 brushes
    1,025 brushes total
    6,186 visible sides
INFO: calculating BSP for 1025 brushes with 6186 sides
    1,025 brushes
    6,186 visible faces
    5,591 nodes
    5,248 expensive split nodes
      343 mid-split nodes
    5,592 leaves
    3,051 EMPTY leafs
    2,423 SOLID leafs
      111 MIST | Q2_UNUSED_8 leafs
        7 SKY leafs
    5,592 leafs total
    28 max tree height
    17 avg tree height
    16 tiny portals
    25,200 tree portals
    663 outside leaves
    0 detail filled leafs
    1,025 brushes
    3,302 visible faces
    2,884 non-visible faces
    4,185 nodes
    1,282 non-visible nodes
    4,185 expensive split nodes
    4,186 leaves
    2,161 EMPTY leafs
    1,925 SOLID leafs
       94 MIST | Q2_UNUSED_8 leafs
        6 SKY leafs
    4,186 leafs total
    28 max tree height
    16 avg tree height
    24 tiny portals
    20,040 tree portals
    674 outside leaves
    0 detail filled leafs
    24 tiny portals
    20,040 tree portals
    7,781 sides visible
    7,581 makefaces
    2,371 merged
      358 subdivided
    1,497 nodes pruned
    20 tiny portals
    1,587 player-occupiable leaves
    1,372 clusters of leaves
    4,262 vis portals
    1,102 SOLID leafs
    1,487 EMPTY leafs
       94 MIST | Q2_UNUSED_8 leafs
        6 SKY leafs
    2,689 leafs total
    27 max tree height
    16 avg tree height
         2 edges degenerated
     5,171 edges added by tjunctions
     5,390 faces optimized through MWT
    16,020 triangles computed from MWT
     1,527 faces created via optimization of MWT triangles
    15,640 edges
     7,095 faces
Processing hull 1...
Processing hull 2...
WARNING: worldspawn at 0 0 0 has long value for key wad (length 278 >= 127)
Writing l1_atlas.bsp as Quake BSP bsp29
Wrote l1_atlas.bsp

count   lump name    byte size 
     34 models             2176
   1337 planes            26740
   8044 vertexes          96528
   2930 nodes             70320
   1201 texinfos          48040
   7365 faces            147300
   4122 clipnodes         32976
   1863 leafs             52164
   9840 marksurfaces      19680
  16195 edges             64780
  31496 surfedges        125984
     48 textures         295796
        lightdata             0
        visdata               0
        entdata            9687

2.153s seconds elapsed


