---- qbsp / ericw-tools 2.0.0-alpha8-26-ged62ec10 ----

--- Options Summary ---
    "nocolor" was set to "1" (from command line)

Input file: C:\Programs\Quake-Level-Design-Starter-Kit\maps\spAtlasPrison\l1_atlas-compile.map
Output file: C:\Programs\Quake-Level-Design-Starter-Kit\maps\spAtlasPrison\l1_atlas.bsp

INFO: using built-in palette.
     5 entities
     5 unique textures
    35 texinfos
    94 unique planes

INFO: world extents calculated to 1704 units
      243 brushes
    1,458 sides

            0 texture frames added
WARNING: unable to find texture skip
Processing hull 0...
    243 SOLID brushes
    243 brushes total
    1,458 visible sides
INFO: calculating BSP for 243 brushes with 1458 sides
      243 brushes
    1,458 visible faces
    541 nodes
    541 expensive split nodes
    542 leaves
    292 EMPTY leafs
    250 SOLID leafs
    542 leafs total
    14 max tree height
    11 avg tree height
    2,376 tree portals
WARNING: Reached occupant "info_player_start" at (48 -208 40), no filling performed.
Leak file written to l1_atlas.pts
            8 portals written to l1_atlas.leak.prt
    2,376 tree portals
    1,113 sides visible
    1,113 makefaces
      180 merged
      153 subdivided
    22 nodes pruned
    292 EMPTY leafs
    228 SOLID leafs
    520 leafs total
    14 max tree height
    11 avg tree height
      786 edges added by tjunctions
    1,086 faces optimized through MWT
    2,958 triangles computed from MWT
      172 faces created via optimization of MWT triangles
    3,021 edges
    1,258 faces
Processing hull 1...
WARNING: Reached occupant "info_player_start" at (48 -208 40), no filling performed.
Processing hull 2...
WARNING: worldspawn at 0 0 0 has long value for key wad (length 278 >= 127)
Writing l1_atlas.bsp as Quake BSP bsp29
Wrote l1_atlas.bsp

count   lump name    byte size 
      1 models               64
    112 planes             2240
   1202 vertexes          14424
    519 nodes             12456
     32 texinfos           1280
   1258 faces             25160
   4606 clipnodes         36848
    293 leafs              8204
   1342 marksurfaces       2684
   3022 edges             12088
   5474 surfedges         21896
      5 textures          54584
        lightdata             0
        visdata               0
        entdata             408

0.141s seconds elapsed


