---- qbsp / ericw-tools 2.0.0-alpha8-26-ged62ec10 ----

--- Options Summary ---
    "nocolor" was set to "1" (from command line)

Input file: C:\Programs\Quake-Level-Design-Starter-Kit\maps\spAtlasPrison\l1_atlas-compile.map
Output file: C:\Programs\Quake-Level-Design-Starter-Kit\maps\spAtlasPrison\l1_atlas.bsp

INFO: using built-in palette.
      241 entities
       40 unique textures
    1,954 texinfos
    1,828 unique planes

INFO: world extents calculated to 3752 units
    1,151 brushes
    6,935 sides
    1,468 side bevels

            9 texture frames added
WARNING: unable to find texture skip
WARNING: unable to find texture 128_grey_2
WARNING: unable to find texture 128_grey_3
WARNING: unable to find texture pebbledashStrip
WARNING: unable to find texture 64_grey_3
WARNING: unable to find texture light1_big
Processing hull 0...
      948 SOLID brushes
        1 SKY brushes
       81 MIST | Q2_UNUSED_8 brushes
    1,030 brushes total
    6,216 visible sides
INFO: calculating BSP for 1030 brushes with 6216 sides
    1,030 brushes
    6,216 visible faces
    5,662 nodes
    5,319 expensive split nodes
      343 mid-split nodes
    5,663 leaves
    3,074 EMPTY leafs
    2,471 SOLID leafs
      111 MIST | Q2_UNUSED_8 leafs
        7 SKY leafs
    5,663 leafs total
    28 max tree height
    17 avg tree height
    16 tiny portals
    25,561 tree portals
    674 outside leaves
    0 detail filled leafs
    1,030 brushes
    3,331 visible faces
    2,885 non-visible faces
    4,273 nodes
    1,301 non-visible nodes
    4,273 expensive split nodes
    4,274 leaves
    2,192 EMPTY leafs
    1,980 SOLID leafs
       96 MIST | Q2_UNUSED_8 leafs
        6 SKY leafs
    4,274 leafs total
    28 max tree height
    16 avg tree height
    20 tiny portals
    20,422 tree portals
    687 outside leaves
    0 detail filled leafs
    20 tiny portals
    20,422 tree portals
    7,902 sides visible
    7,700 makefaces
    2,428 merged
      352 subdivided
    1,543 nodes pruned
    17 tiny portals
    1,607 player-occupiable leaves
    1,387 clusters of leaves
    4,292 vis portals
    1,124 SOLID leafs
    1,505 EMPTY leafs
       96 MIST | Q2_UNUSED_8 leafs
        6 SKY leafs
    2,731 leafs total
    27 max tree height
    16 avg tree height
         2 edges degenerated
     5,210 edges added by tjunctions
     5,457 faces optimized through MWT
    16,196 triangles computed from MWT
     1,540 faces created via optimization of MWT triangles
    15,792 edges
     7,164 faces
Processing hull 1...
Processing hull 2...
WARNING: worldspawn at 0 0 0 has long value for key wad (length 184 >= 127)
Writing l1_atlas.bsp as Quake BSP bsp29
Wrote l1_atlas.bsp

count   lump name    byte size 
     36 models             2304
   1353 planes            27060
   8141 vertexes          97692
   2984 nodes             71616
   1239 texinfos          49560
   7446 faces            148920
   3944 clipnodes         31552
   1897 leafs             53116
   9928 marksurfaces      19856
  16371 edges             65484
  31847 surfedges        127388
     49 textures         239920
        lightdata             0
        visdata               0
        entdata           10898

3.336s seconds elapsed


