---- qbsp / ericw-tools 2.0.0-alpha8-26-ged62ec10 ----

--- Options Summary ---
    "nocolor" was set to "1" (from command line)

Input file: C:\Programs\Quake-Level-Design-Starter-Kit\maps\spAtlasPrison\l1_atlas-compile.map
Output file: C:\Programs\Quake-Level-Design-Starter-Kit\maps\spAtlasPrison\l1_atlas.bsp

INFO: using built-in palette.
      9 entities
     14 unique textures
    466 texinfos
    374 unique planes

INFO: world extents calculated to 2408 units
      440 brushes
    2,633 sides
      496 side bevels

            0 texture frames added
WARNING: unable to find texture skip
WARNING: unable to find texture pebbledashStrip
WARNING: unable to find texture pebbledash
WARNING: unable to find texture __TB_empty
Processing hull 0...
    440 SOLID brushes
    440 brushes total
    2,633 visible sides
INFO: calculating BSP for 440 brushes with 2633 sides
      440 brushes
    2,553 visible faces
       80 non-visible faces
    1,295 nodes
       92 non-visible nodes
    1,274 expensive split nodes
       21 mid-split nodes
    1,296 leaves
      650 EMPTY leafs
      646 SOLID leafs
    1,296 leafs total
    20 max tree height
    13 avg tree height
    4 tiny portals
    5,712 tree portals
WARNING: Reached occupant "monster_zombie" at (752 -208 24), no filling performed.
Leak file written to l1_atlas.pts
           11 portals written to l1_atlas.leak.prt
    4 tiny portals
    5,712 tree portals
    2,638 sides visible
    2,638 makefaces
      552 merged
      273 subdivided
    73 nodes pruned
      650 EMPTY leafs
      573 SOLID leafs
    1,223 leafs total
    20 max tree height
    12 avg tree height
    1,595 edges added by tjunctions
    2,201 faces optimized through MWT
    6,002 triangles computed from MWT
      382 faces created via optimization of MWT triangles
    6,153 edges
    2,611 faces
Processing hull 1...
Processing hull 2...
WARNING: worldspawn at 0 0 0 has long value for key wad (length 278 >= 127)
Writing l1_atlas.bsp as Quake BSP bsp29
Wrote l1_atlas.bsp

count   lump name    byte size 
      1 models               64
    354 planes             7080
   2534 vertexes          30408
   1222 nodes             29328
    334 texinfos          13360
   2611 faces             52220
   1037 clipnodes          8296
    651 leafs             18228
   3070 marksurfaces       6140
   6154 edges             24616
  11252 surfedges         45008
     14 textures          99740
        lightdata             0
        visdata               0
        entdata             728

1.059s seconds elapsed


